[CUAPI] __cudaRegisterFatBinary
[VERSION] GPGPU-Sim V3.1.2+ruby [build 14831]
[RUBY] initializing gpusim_ruby
[RUBY] init ruby
[CUAPI] __cudaRegisterFunction
[CUAPI] __cudaRegisterFunction
[CUAPI] __cudaRegisterFunction
[CUAPI] __cudaRegisterTexture
[CUAPI] __cudaRegisterTexture
[BENCH] BFS from Parboil
[BENCH] Hardware Barrier
Reading input failed
[CUAPI] cudaMalloc
[CUAPI] cudaMemcpy
[DEBUG] Setting Ruby membar
[CUAPI] cudaMalloc
[CUAPI] cudaMemcpy
[DEBUG] Setting Ruby membar
[CUAPI] cudaMalloc
[CUAPI] cudaMalloc
[CUAPI] cudaMalloc
[CUAPI] cudaMalloc
[CUAPI] cudaMalloc
[CUAPI] cudaMalloc
[CUAPI] cudaMemcpy
[DEBUG] Setting Ruby membar
[CUAPI] cudaMemcpy
[DEBUG] Setting Ruby membar
[CUAPI] cudaBindTexture
[CUAPI] cudaBindTexture
[BENCH] Starting GPU kernel
[DEBUG] Setting Ruby membar
[CUAPI] cudaMemcpy
[DEBUG] Setting Ruby membar
[CUAPI] cudaMemcpy
[DEBUG] Setting Ruby membar
[CUAPI] cudaMemcpy
[DEBUG] Setting Ruby membar
[CUAPI] cudaMalloc
[CUAPI] cudaMalloc
[CUAPI] cudaMalloc
[CUAPI] cudaMalloc
[CUAPI] cudaMalloc
[CUAPI] cudaMemcpy
[DEBUG] Setting Ruby membar
[CUAPI] cudaMalloc
[CUAPI] cudaMemcpy
[DEBUG] Setting Ruby membar
[CUAPI] cudaMemcpy
[DEBUG] Setting Ruby membar
[CUAPI] cudaMemcpy
[DEBUG] Setting Ruby membar
[CUAPI] __cudaLaunch
[DEBUG] pushing kernel '_Z17BFS_in_GPU_kernelPiS_P4int2S1_S_S_iS_iiS_' to stream 0
[DEBUG] gridDim= (1,1,1) blockDim = (512,1,1)
[DEBUG] Setting Ruby membar
[DEBUG] Allocating CTA barrier: kernel_id=1, num_ctas=1
[SYNC] CTA barrier allocated for Grid #1
[DEBUG] CTA/core = 3, limited by: threads shmem
[SYNC] CTA barrier deallocated for Grid #1
[DEBUG] Kenel done, CTA barrier deallocated
[STAT] kernel_sim_cycle = 18127486
[STAT] tot_sim_cycle = 18127486
[STAT] tot_sim_insn = 35226822
[STAT] tot_ipc = 1.943
[STATS] gpu_tot_l1_miss_rate = -nan
[STATS] gpu_tot_l2_miss_rate = 0.0662

[STATS] simulation_time = 0 days, 0 hrs, 21 min, 24 sec (1284 sec)
[CUAPI] cudaMemcpy
[DEBUG] Setting Ruby membar
[CUAPI] cudaMemcpy
[DEBUG] Setting Ruby membar
[CUAPI] cudaMemcpy
[DEBUG] Setting Ruby membar
[CUAPI] cudaMemcpy
[DEBUG] Setting Ruby membar
[CUAPI] __cudaLaunch
[DEBUG] pushing kernel '_Z26BFS_kernel_multi_blk_inGPUPiS_P4int2S1_S_S_S_S_iiS_S_S_S_S_S_' to stream 0
[DEBUG] gridDim= (14,1,1) blockDim = (512,1,1)
[DEBUG] Setting Ruby membar
[DEBUG] Allocating CTA barrier: kernel_id=2, num_ctas=14
[SYNC] CTA barrier allocated for Grid #2
[DEBUG] CTA/core = 2, limited by: regs
[SYNC] CTA barrier deallocated for Grid #2
[DEBUG] Kenel done, CTA barrier deallocated
[STAT] kernel_sim_cycle = 61307917
[STAT] tot_sim_cycle = 79435403
[STAT] tot_sim_insn = 258404896
[STAT] tot_ipc = 3.253
[STATS] gpu_tot_l1_miss_rate = -nan
[STATS] gpu_tot_l2_miss_rate = 0.0706

[STATS] simulation_time = 0 days, 3 hrs, 47 min, 16 sec (13636 sec)
[CUAPI] cudaMemcpy
[DEBUG] Setting Ruby membar
[CUAPI] cudaMemcpy
[DEBUG] Setting Ruby membar
[CUAPI] cudaMemcpy
[DEBUG] Setting Ruby membar
[CUAPI] cudaMemcpy
[DEBUG] Setting Ruby membar
[CUAPI] __cudaLaunch
[DEBUG] pushing kernel '_Z17BFS_in_GPU_kernelPiS_P4int2S1_S_S_iS_iiS_' to stream 0
[DEBUG] gridDim= (1,1,1) blockDim = (512,1,1)
[DEBUG] Setting Ruby membar
[DEBUG] Allocating CTA barrier: kernel_id=3, num_ctas=1
[SYNC] CTA barrier allocated for Grid #3
[DEBUG] CTA/core = 3, limited by: threads shmem
[SYNC] CTA barrier deallocated for Grid #3
[DEBUG] Kenel done, CTA barrier deallocated
[STAT] kernel_sim_cycle = 18148078
[STAT] tot_sim_cycle = 97583481
[STAT] tot_sim_insn = 293591981
[STAT] tot_ipc = 3.009
[STATS] gpu_tot_l1_miss_rate = -nan
[STATS] gpu_tot_l2_miss_rate = 0.0705

[STATS] simulation_time = 0 days, 4 hrs, 8 min, 54 sec (14934 sec)
[CUAPI] cudaMemcpy
[DEBUG] Setting Ruby membar
[CUAPI] cudaMemcpy
[DEBUG] Setting Ruby membar
[CUAPI] cudaMemcpy
[DEBUG] Setting Ruby membar
[DEBUG] Setting Ruby membar
[CUAPI] cudaEventSynchronize
[BENCH] GPU kernel done
[BENCH] Kernel called 3 times (2, 1, 0)
[CUAPI] cudaMemcpy
[DEBUG] Setting Ruby membar
[CUAPI] cudaMemcpy
[DEBUG] Setting Ruby membar
IO        : 1.712995
Kernel    : 14930.000000
Copy      : 2.120992
Driver    : 14929.913515
CPU/Kernel Overlap: 14930.000000
Timer Wall Time: 14933.748047
