#!/bin/bash
SIM_ROOT=/home/cxh/gpgpu-sim
BENCH_ROOT=/home/cxh/benchmarks
RESULT_DIR=/home/cxh/results
MODEL="cuda"
INPUT="sim"
BENCH="wave"
CONFIG="test"
OPTION="new"
LOG_FILE=log.txt
ERR_FILE=error.txt
OUT_FILE=output.txt

cd $SIM_ROOT
source gpgpusim-env.sh
cd $RESULT_DIR
rm $ERR_FILE
echo "CUDA Simulation on GPGPU-Sim <$CONFIG>"
for BMK in $BENCH; do
for OPT in $OPTION; do
for SIZE in $INPUT; do
	output_dir=$RESULT_DIR/$OPT-$BMK-$SIZE
	mkdir $output_dir 2>> $RESULT_DIR/$ERR_FILE
	echo ">>> Run $BMK <$SIZE> <$OPT> at `date`"
	echo ">>> Run $BMK <$SIZE> <$OPT> at `date`" > $output_dir/$LOG_FILE
	cd $BENCH_ROOT/$BMK
	cp $BENCH_ROOT/config/$CONFIG/$OPT/gpgpusim.config .
	cp $BENCH_ROOT/config/$CONFIG/$OPT/baseline_icnt_config.txt .
	rm stats.txt config.out 2> $output_dir/$ERR_FILE
	./run-$SIZE > $output_dir/$OUT_FILE 2>> $output_dir/$ERR_FILE
	echo ">>> Check Results"
        echo ">>> Check Results" >> $output_dir/$LOG_FILE
	./check-$SIZE >> $output_dir/$ERR_FILE
	mv stats.txt $output_dir/.
	mv config.out $output_dir/.
	mv gpgpu_inst_stats.txt $output_dir/.
	rm _cuobjdump*
	echo ">>> End $BMK <$SIZE> <$OPT> at `date`"
	echo ">>> End $BMK <$SIZE> <$OPT> at `date`" >> $output_dir/$LOG_FILE
	echo ">>> ========================================================"
done;
done;
done;
